LAMMPS (23 Jun 2022 - Update 2)
# 3d Lennard-Jones melt

units		lj
atom_style	atomic
boundary	p p p

lattice	sc 0.5
Lattice spacing in x,y,z = 1.259921 1.259921 1.259921
region		box block 0 20 0 20 0 20
create_box	1 box
Created orthogonal box = (0 0 0) to (25.198421 25.198421 25.198421)
create_atoms	1 box
Created 8000 atoms
mass		1 1.0
#read_data	Configuration-PBC.int

velocity        all create 1.5 22233 mom yes rot yes dist gaussian

pair_style	lj/cut 2.5
pair_coeff	1 1 1.0 1.0 2.5

neighbor	0.3 bin
neigh_modify	every 20 delay 0 check no

thermo_style    custom step temp press pe ke etotal vol
thermo          1000
thermo_modify   flush yes

fix		1 all nve

#dump            1 all custom 1000 Data.dump id type xu yu zu
#dump_modify     1 flush yes

#dump		2 all image 25 image.*.jpg type type axes yes 0.8 0.02 view 60 -30
#dump_modify	2 pad 3

#dump		3 all movie 25 movie.mpg type type axes yes 0.8 0.02 view 60 -30
#dump_modify	3 pad 3

run		1000000
Generated 0 of 0 mixed pair_coeff terms from geometric mixing rule
  update every 20 steps, delay 0 steps, check no
Step          Temp          Press          PotEng         KinEng         TotEng         Volume
0   1.5           -1.5986234     -3.1233389      2.2497187     -0.87362016     16000
Averages over the last 501 of 1001 rows, steps 500000 to 1000000:
Temp Press PotEng KinEng TotEng Volume
0.964368 0.0185684 -3.60911 1.44637 -2.16274 16000
Loop time of 1106.89 on 4 procs for 1000000 steps with 8000 atoms
